code/testcases/IEEE30bus.RAW
0,   100.00,  32, 0, 1, 60.00     / PSS(R)E 32 RAW created by rawd32  WED, MAY 31 2017  16:11
 08/20/93 UW ARCHIVE           100.0  1961 W IEEE 30 BUS TES

     1,'GLEN LYN    ', 132.0000,3,   1,   1,   1,1.06000,  98.4316
     2,'CLAYTOR     ', 132.0000,2,   1,   1,   1,1.04500,  93.0534
     3,'KUMIS       ', 132.0000,1,   1,   1,   1,1.02118,  90.9029
     4,'HANCOCK     ', 132.0000,1,   1,   1,   1,1.01230,  89.1522
     5,'FIELDALE    ', 132.0000,2,   1,   1,   1,1.01000,  84.2828
     6,'ROANOKE     ', 132.0000,1,   1,   1,   1,1.01063,  87.3766
     7,'BLAINE      ', 132.0000,1,   1,   1,   1,1.00260,  85.5793
     8,'REUSENS     ', 132.0000,2,   1,   1,   1,1.01000,  86.6342
     9,'ROANOKE     ',   1.0000,1,   1,   1,   1,1.05113,  84.3336
    10,'ROANOKE     ',  33.0000,1,   1,   1,   1,1.04538,  82.7434
    11,'ROANOKE     ',  11.0000,2,   1,   1,   1,1.08200,  84.3336
    12,'HANCOCK     ',  33.0000,1,   1,   1,   1,1.05734,  83.4987
    13,'HANCOCK     ',  11.0000,2,   1,   1,   1,1.07100,  83.4987
    14,'BUS 14      ',  33.0000,1,   1,   1,   1,1.04251,  82.6071
    15,'BUS 15      ',  33.0000,1,   1,   1,   1,1.03792,  82.5152
    16,'BUS 16      ',  33.0000,1,   1,   1,   1,1.04463,  82.9162
    17,'BUS 17      ',  33.0000,1,   1,   1,   1,1.04015,  82.5816
    18,'BUS 18      ',  33.0000,1,   1,   1,   1,1.02840,  81.9014
    19,'BUS 19      ',  33.0000,1,   1,   1,   1,1.02590,  81.7279
    20,'BUS 20      ',  33.0000,1,   1,   1,   1,1.02999,  81.9244
    21,'BUS 21      ',  33.0000,1,   1,   1,   1,1.03298,  82.3009
    22,'BUS 22      ',  33.0000,1,   1,   1,   1,1.03351,  82.3152
    23,'BUS 23      ',  33.0000,1,   1,   1,   1,1.02743,  82.1250
    24,'BUS 24      ',  33.0000,1,   1,   1,   1,1.02185,  81.9488
    25,'BUS 25      ',  33.0000,1,   1,   1,   1,1.01762,  82.3770
    26,'BUS 26      ',  33.0000,1,   1,   1,   1,0.99995,  81.9576
    27,'CLOVERDL    ',  33.0000,1,   1,   1,   1,1.02354,  82.9015
    28,'CLOVERDL    ', 132.0000,1,   1,   1,   1,1.00710,  86.7543
    29,'BUS 29      ',  33.0000,1,   1,   1,   1,1.00371,  81.6723
    30,'BUS 30      ',  33.0000,1,   1,   1,   1,0.99223,  80.7900
 0 /End of Bus data, Begin Load data
     2,'1 ',1,   1,   1,    21.700,    12.700,     0.000,     0.000,     0.000,     0.000,   1,1
     3,'1 ',1,   1,   1,     2.400,     1.200,     0.000,     0.000,     0.000,     0.000,   1,1
     4,'1 ',1,   1,   1,     7.600,     1.600,     0.000,     0.000,     0.000,     0.000,   1,1
     5,'1 ',1,   1,   1,    94.200,    19.000,     0.000,     0.000,     0.000,     0.000,   1,1
     7,'1 ',1,   1,   1,    22.800,    10.900,     0.000,     0.000,     0.000,     0.000,   1,1
     8,'1 ',1,   1,   1,    30.000,    30.000,     0.000,     0.000,     0.000,     0.000,   1,1
    10,'1 ',1,   1,   1,     5.800,     2.000,     0.000,     0.000,     0.000,     0.000,   1,1
    12,'1 ',1,   1,   1,    11.200,     7.500,     0.000,     0.000,     0.000,     0.000,   1,1
    14,'1 ',1,   1,   1,     6.200,     1.600,     0.000,     0.000,     0.000,     0.000,   1,1
    15,'1 ',1,   1,   1,     8.200,     2.500,     0.000,     0.000,     0.000,     0.000,   1,1
    16,'1 ',1,   1,   1,     3.500,     1.800,     0.000,     0.000,     0.000,     0.000,   1,1
    17,'1 ',1,   1,   1,     9.000,     5.800,     0.000,     0.000,     0.000,     0.000,   1,1
    18,'1 ',1,   1,   1,     3.200,     0.900,     0.000,     0.000,     0.000,     0.000,   1,1
    19,'1 ',1,   1,   1,     9.500,     3.400,     0.000,     0.000,     0.000,     0.000,   1,1
    20,'1 ',1,   1,   1,     2.200,     0.700,     0.000,     0.000,     0.000,     0.000,   1,1
    21,'1 ',1,   1,   1,    17.500,    11.200,     0.000,     0.000,     0.000,     0.000,   1,1
    23,'1 ',1,   1,   1,     3.200,     1.600,     0.000,     0.000,     0.000,     0.000,   1,1
    24,'1 ',1,   1,   1,     8.700,     6.700,     0.000,     0.000,     0.000,     0.000,   1,1
    26,'1 ',1,   1,   1,     3.500,     2.300,     0.000,     0.000,     0.000,     0.000,   1,1
    29,'1 ',1,   1,   1,     2.400,     0.900,     0.000,     0.000,     0.000,     0.000,   1,1
    30,'1 ',1,   1,   1,    10.600,     1.900,     0.000,     0.000,     0.000,     0.000,   1,1
 0 /End of Load data, Begin Fixed shunt data
    10,' 1',1,     0.000,    19.000
    24,' 1',1,     0.000,     4.300
 0 /End of Fixed shunt data, Begin Generator data
     1,'1 ',   260.957,   -20.418,     0.000,     0.000,1.06000,     0,   100.000, 0.00000E+0, 1.00000E+0, 0.00000E+0, 0.00000E+0,1.00000,1,  100.0, 10000.000,-10000.000,   1,1.0000
     2,'1 ',    40.000,    56.070,    50.000,   -40.000,1.04500,     0,   100.000, 0.00000E+0, 1.00000E+0, 0.00000E+0, 0.00000E+0,1.00000,1,  100.0, 10000.000,-10000.000,   1,1.0000
     5,'1 ',     0.000,    35.659,    40.000,   -40.000,1.01000,     0,   100.000, 0.00000E+0, 1.00000E+0, 0.00000E+0, 0.00000E+0,1.00000,1,  100.0, 10000.000,-10000.000,   1,1.0000
     8,'1 ',     0.000,    36.111,    40.000,   -10.000,1.01000,     0,   100.000, 0.00000E+0, 1.00000E+0, 0.00000E+0, 0.00000E+0,1.00000,1,  100.0, 10000.000,-10000.000,   1,1.0000
    11,'1 ',     0.000,    16.057,    24.000,    -6.000,1.08200,     0,   100.000, 0.00000E+0, 1.00000E+0, 0.00000E+0, 0.00000E+0,1.00000,1,  100.0, 10000.000,-10000.000,   1,1.0000
    13,'1 ',     0.000,    10.451,    24.000,    -6.000,1.07100,     0,   100.000, 0.00000E+0, 1.00000E+0, 0.00000E+0, 0.00000E+0,1.00000,1,  100.0, 10000.000,-10000.000,   1,1.0000
 0 /End of Generator data, Begin Branch data
     1,      2,'1 ', 1.92000E-2, 5.75000E-2,   0.05280,  130.00,    0.00,    0.00,  0.00000,  0.00000,  0.00000,  0.00000,1,1,   0.00,   1,1.0000
     1,      3,'1 ', 4.52000E-2, 1.65200E-1,   0.04080,  130.00,    0.00,    0.00,  0.00000,  0.00000,  0.00000,  0.00000,1,1,   0.00,   1,1.0000
     2,      4,'1 ', 5.70000E-2, 1.73700E-1,   0.03680,   65.00,    0.00,    0.00,  0.00000,  0.00000,  0.00000,  0.00000,1,1,   0.00,   1,1.0000
     2,      5,'1 ', 4.72000E-2, 1.98300E-1,   0.04180,  130.00,    0.00,    0.00,  0.00000,  0.00000,  0.00000,  0.00000,1,1,   0.00,   1,1.0000
     2,      6,'1 ', 5.81000E-2, 1.76300E-1,   0.03740,   65.00,    0.00,    0.00,  0.00000,  0.00000,  0.00000,  0.00000,1,1,   0.00,   1,1.0000
     3,      4,'1 ', 1.32000E-2, 3.79000E-2,   0.00840,  130.00,    0.00,    0.00,  0.00000,  0.00000,  0.00000,  0.00000,1,1,   0.00,   1,1.0000
     4,      6,'1 ', 1.19000E-2, 4.14000E-2,   0.00900,   90.00,    0.00,    0.00,  0.00000,  0.00000,  0.00000,  0.00000,1,1,   0.00,   1,1.0000
     5,      7,'1 ', 4.60000E-2, 1.16000E-1,   0.02040,   70.00,    0.00,    0.00,  0.00000,  0.00000,  0.00000,  0.00000,1,1,   0.00,   1,1.0000
     6,      7,'1 ', 2.67000E-2, 8.20000E-2,   0.01700,  130.00,    0.00,    0.00,  0.00000,  0.00000,  0.00000,  0.00000,1,1,   0.00,   1,1.0000
     6,      8,'1 ', 1.20000E-2, 4.20000E-2,   0.00900,   32.00,    0.00,    0.00,  0.00000,  0.00000,  0.00000,  0.00000,1,1,   0.00,   1,1.0000
     6,     28,'1 ', 1.69000E-2, 5.99000E-2,   0.01300,    0.00,    0.00,    0.00,  0.00000,  0.00000,  0.00000,  0.00000,1,1,   0.00,   1,1.0000
     8,     28,'1 ', 6.36000E-2, 2.00000E-1,   0.04280,    0.00,    0.00,    0.00,  0.00000,  0.00000,  0.00000,  0.00000,1,1,   0.00,   1,1.0000
     9,     10,'1 ',-0.00000E+0, 1.10000E-1,   0.00000,    0.00,    0.00,    0.00,  0.00000,  0.00000,  0.00000,  0.00000,1,1,   0.00,   1,1.0000
     9,     11,'1 ',-0.00000E+0, 2.08000E-1,   0.00000,   65.00,    0.00,    0.00,  0.00000,  0.00000,  0.00000,  0.00000,1,1,   0.00,   1,1.0000
    10,     17,'1 ', 3.24000E-2, 8.45000E-2,   0.00000,    0.00,    0.00,    0.00,  0.00000,  0.00000,  0.00000,  0.00000,1,1,   0.00,   1,1.0000
    10,     20,'1 ', 9.36000E-2, 2.09000E-1,   0.00000,   32.00,    0.00,    0.00,  0.00000,  0.00000,  0.00000,  0.00000,1,1,   0.00,   1,1.0000
    10,     21,'1 ', 3.48000E-2, 7.49000E-2,   0.00000,    0.00,    0.00,    0.00,  0.00000,  0.00000,  0.00000,  0.00000,1,1,   0.00,   1,1.0000
    10,     22,'1 ', 7.27000E-2, 1.49900E-1,   0.00000,    0.00,    0.00,    0.00,  0.00000,  0.00000,  0.00000,  0.00000,1,1,   0.00,   1,1.0000
    12,     13,'1 ',-0.00000E+0, 1.40000E-1,   0.00000,   65.00,    0.00,    0.00,  0.00000,  0.00000,  0.00000,  0.00000,1,1,   0.00,   1,1.0000
    12,     14,'1 ', 1.23100E-1, 2.55900E-1,   0.00000,    0.00,    0.00,    0.00,  0.00000,  0.00000,  0.00000,  0.00000,1,1,   0.00,   1,1.0000
    12,     15,'1 ', 6.62000E-2, 1.30400E-1,   0.00000,   32.00,    0.00,    0.00,  0.00000,  0.00000,  0.00000,  0.00000,1,1,   0.00,   1,1.0000
    12,     16,'1 ', 9.45000E-2, 1.98700E-1,   0.00000,   16.00,    0.00,    0.00,  0.00000,  0.00000,  0.00000,  0.00000,1,1,   0.00,   1,1.0000
    14,     15,'1 ', 2.21000E-1, 1.99700E-1,   0.00000,   16.00,    0.00,    0.00,  0.00000,  0.00000,  0.00000,  0.00000,1,1,   0.00,   1,1.0000
    15,     18,'1 ', 1.07300E-1, 2.18500E-1,   0.00000,   16.00,    0.00,    0.00,  0.00000,  0.00000,  0.00000,  0.00000,1,1,   0.00,   1,1.0000
    15,     23,'1 ', 1.00000E-1, 2.02000E-1,   0.00000,    0.00,    0.00,    0.00,  0.00000,  0.00000,  0.00000,  0.00000,1,1,   0.00,   1,1.0000
    16,     17,'1 ', 5.24000E-2, 1.92300E-1,   0.00000,   16.00,    0.00,    0.00,  0.00000,  0.00000,  0.00000,  0.00000,1,1,   0.00,   1,1.0000
    18,     19,'1 ', 6.39000E-2, 1.29200E-1,   0.00000,   16.00,    0.00,    0.00,  0.00000,  0.00000,  0.00000,  0.00000,1,1,   0.00,   1,1.0000
    19,     20,'1 ', 3.40000E-2, 6.80000E-2,   0.00000,   16.00,    0.00,    0.00,  0.00000,  0.00000,  0.00000,  0.00000,1,1,   0.00,   1,1.0000
    21,     22,'1 ', 1.16000E-2, 2.36000E-2,   0.00000,    0.00,    0.00,    0.00,  0.00000,  0.00000,  0.00000,  0.00000,1,1,   0.00,   1,1.0000
    22,     24,'1 ', 1.15000E-1, 1.79000E-1,   0.00000,    0.00,    0.00,    0.00,  0.00000,  0.00000,  0.00000,  0.00000,1,1,   0.00,   1,1.0000
    23,     24,'1 ', 1.32000E-1, 2.70000E-1,   0.00000,    0.00,    0.00,    0.00,  0.00000,  0.00000,  0.00000,  0.00000,1,1,   0.00,   1,1.0000
    24,     25,'1 ', 1.88500E-1, 3.29200E-1,   0.00000,    0.00,    0.00,    0.00,  0.00000,  0.00000,  0.00000,  0.00000,1,1,   0.00,   1,1.0000
    25,     26,'1 ', 2.54400E-1, 3.80000E-1,   0.00000,    0.00,    0.00,    0.00,  0.00000,  0.00000,  0.00000,  0.00000,1,1,   0.00,   1,1.0000
    25,     27,'1 ', 1.09300E-1, 2.08700E-1,   0.00000,    0.00,    0.00,    0.00,  0.00000,  0.00000,  0.00000,  0.00000,1,1,   0.00,   1,1.0000
    27,     29,'1 ', 2.19800E-1, 4.15300E-1,   0.00000,    0.00,    0.00,    0.00,  0.00000,  0.00000,  0.00000,  0.00000,1,1,   0.00,   1,1.0000
    27,     30,'1 ', 3.20200E-1, 6.02700E-1,   0.00000,    0.00,    0.00,    0.00,  0.00000,  0.00000,  0.00000,  0.00000,1,1,   0.00,   1,1.0000
    29,     30,'1 ', 2.39900E-1, 4.53300E-1,   0.00000,    0.00,    0.00,    0.00,  0.00000,  0.00000,  0.00000,  0.00000,1,1,   0.00,   1,1.0000
 0 /End of Branch data, Begin Transformer data
     4,    12,     0,'1 ',1,1,1, 0.00000E+0, 0.00000E+0,2,'                                        ',1,   1,1.0000
 0.00000E+0, 2.56000E-1,   100.00
0.93200,   0.000,   0.000,    65.00,     0.00,     0.00, 0,      0, 1.50000, 0.51000, 1.50000, 0.51000, 159, 0, 0.00000, 0.00000,  0.000
1.00000,   0.000
     6,     9,     0,'1 ',1,1,1, 0.00000E+0, 0.00000E+0,2,'                                        ',1,   1,1.0000
 0.00000E+0, 2.08000E-1,   100.00
0.97800,   0.000,   0.000,    65.00,     0.00,     0.00, 0,      0, 1.50000, 0.51000, 1.50000, 0.51000, 159, 0, 0.00000, 0.00000,  0.000
1.00000,   0.000
     6,    10,     0,'1 ',1,1,1, 0.00000E+0, 0.00000E+0,2,'                                        ',1,   1,1.0000
 0.00000E+0, 5.56000E-1,   100.00
0.96900,   0.000,   0.000,    32.00,     0.00,     0.00, 0,      0, 1.50000, 0.51000, 1.50000, 0.51000, 159, 0, 0.00000, 0.00000,  0.000
1.00000,   0.000
    28,    27,     0,'1 ',1,1,1, 0.00000E+0, 0.00000E+0,2,'                                        ',1,   1,1.0000
 0.00000E+0, 3.96000E-1,   100.00
0.96800,   0.000,   0.000,     0.00,     0.00,     0.00, 0,      0, 1.50000, 0.51000, 1.50000, 0.51000, 159, 0, 0.00000, 0.00000,  0.000
1.00000,   0.000
 0 /End of Transformer data, Begin Area interchange data
   1,     0,     0.000,     1.000,'1           '
 0 /End of Area interchange data, Begin Two-terminal dc line data
 0 /End of Two-terminal dc line data, Begin VSC dc line data
 0 /End of VSC dc line data, Begin Impedance correction table data
 0 /End of Impedance correction table data, Begin Multi-terminal dc line data
 0 /End of Multi-terminal dc line data, Begin Multi-section line data
 0 /End of Multi-section line data, Begin Zone data
   1,'IEEE 30     '
 0 /End of Zone data, Begin Inter-area transfer data
 0 /End of Inter-area transfer data, Begin Owner data
   1,'1           '
 0 /End of Owner data, Begin FACTS device data
 0 /End of FACTS device data, Begin Switched shunt data
 0 /End of Switched shunt data, Begin GNE device data
 0 /End of GNE device data
Q
